<additional>

    <!-- ================== TYPES OF VEHICLES ================== -->

    <!-- Car -->

    <routes>

        <vType id="evehicle"
            vClass="passenger"
            energyModel="electric"
            
            length="5.0"
            width="1.8"
            height="1.5"
            mass="1850"
            minGap="2.5"

            accel="2.6"
            decel="4.5"
            emergencyDecel="9.0"
            maxSpeed="33.33"
            
            personCapacity="4"
            guiShape="evehicle"
            emissionClass="Energy/unknown">

            <param key="device.battery.probability" value="1.0"/>
            <param key="has.battery.device" value="true"/>
            <param key="device.battery.capacity" value="35000"/>
            <param key="device.battery.chargeLevel" value="17500"/>
            <param key="device.battery.maximumPowerRate" value="150000"/>
            <param key="constantPowerIntake" value="100"/>

        </vType>

    </routes>

    <!-- Bus -->
    <routes>
        <vType id="ElectricBus"
            vClass="bus"
            energyModel="electric"
            
            length="12.0"
            width="2.5"
            height="3.4"
            mass="12000"
            minGap="2.5"

            accel="1"
            decel="4"
            emergencyDecel="7.0"
            maxSpeed="24"
            
            personCapacity="85"
            guiShape="bus"
            emissionClass="Energy/unknown">
            
            <param key="has.battery.device" value="true"/>
            <param key="device.battery.capacity" value="2000"/>
            <param key="maximumPower" value="1000"/>
            <param key="frontSurfaceArea" value="5"/>
            <param key="airDragCoefficient" value="0.6"/>
            <param key="rotatingMass" value="100"/>
            <param key="radialDragCoefficient" value="0.5"/>
            <param key="rollDragCoefficient" value="0.01"/>
            <param key="constantPowerIntake" value="100"/>
            <param key="propulsionEfficiency" value="0.9"/>
            <param key="recuperationEfficiency" value="0.9"/>
            <param key="stoppingThreshold" value="0.1"/>
            <param key="device.battery.maximumChargeRate" value="150000"/>
        </vType>
    </routes>

    <!-- ================== BUS STOP ================== -->

    <busStop id="checkpoint1"
             lane="pitagoras_2"
             startPos="20"
             endPos="30"
             color="255,145,4">
        <param key="emptyColor" value="1,1,1,0"/>
    </busStop>

    <busStop id="checkpoint2"
             lane="arquimedes_3"
             startPos="20"
             endPos="30"
             color="255,145,4">
        <param key="emptyColor" value="1,1,1,0"/>
    </busStop>

    <busStop id="checkpoint3"
             lane="euler_0"
             startPos="20"
             endPos="30"
             color="255,145,4">
        <param key="emptyColor" value="1,1,1,0"/>
    </busStop>
    
    <busStop id="checkpoint4"
             lane="sennaA_0"
             startPos="20"
             endPos="30"
             color="255,145,4">
        <param key="emptyColor" value="1,1,1,0"/>
    </busStop>

    <busStop id="checkpoint5"
             lane="sennaB_0"
             startPos="20"
             endPos="30"
             color="255,145,4">
        <param key="emptyColor" value="1,1,1,0"/>
    </busStop>

    <busStop id="checkpoint6"
             lane="-peleB_0"
             startPos="20"
             endPos="30"
             color="255,145,4">
        <param key="emptyColor" value="1,1,1,0"/>
    </busStop>
    
    <busStop id="checkpoint7"
             lane="aveneueb_0"
             startPos="20"
             endPos="30"
             color="255,145,4">
        <param key="emptyColor" value="1,1,1,0"/>
    </busStop>
    
    <busStop id="checkpoint8"
             lane="peleB_0"
             startPos="20"
             endPos="30"
             color="255,145,4">
        <param key="emptyColor" value="1,1,1,0"/>
    </busStop>


    <!-- ================== PARKING ================== -->

    <parkingArea
        id="ParkAreaA"
        lane="arquimedes_0"
        startPos="15"
        endPos="45"
        roadsideCapacity="5"
        angle="0"
        length="20"
    />

    <parkingArea
        id="ParkAreaB"
        lane="-joulestwo_0"
        startPos="20"
        endPos="90"
        roadsideCapacity="7"
        angle="0"
        length="20"
    />
    
    <parkingArea
        id="ParkAreaC"
        lane="joulestwo_0"
        startPos="20"
        endPos="90"
        roadsideCapacity="7"
        angle="0"
        length="20"
    />

    <!-- ================== Charging Station ================== -->
    <chargingStation
        id="Carregamento_1"
        lane="arquimedes_0"
        startPos="15"
        endPos="45"
        chargeDelay="2"
        chargeInTransit="0"
        power="200000"
        efficiency="0.95"
    />
    
    <chargingStation
        id="Carregamento_2"
        lane="-joulestwo_0"
        startPos="20"
        endPos="90"
        chargeDelay="2"
        chargeInTransit="0"
        power="200000"
        efficiency="0.95"
    />

    <chargingStation
        id="Carregamento_3"
        lane="joulestwo_0"
        startPos="20"
        endPos="90"
        chargeDelay="2"
        chargeInTransit="0"
        power="200000"
        efficiency="0.95"
    />

</additional>
