<?xml version="1.0" encoding="UTF-8"?>

<!-- generated on 2026-01-21T08:31:01.009533-02:59 by Eclipse SUMO netedit 1.25.0
<neteditConfiguration xmlns:xsi="http://www.w3.org/2001/XMLSchema-instance" xsi:noNamespaceSchemaLocation="http://sumo.dlr.de/xsd/neteditConfiguration.xsd">

    <input>
        <sumo-net-file value="C:\Users\felip\OneDrive\Documentos\IC\IC-2\Configuration\little-traffic-using-Sm\config\net.net.xml"/>
    </input>

    <output>
        <output-file value="C:\Users\felip\OneDrive\Documentos\IC\IC-2\Configuration\little-traffic-using-Sm\config\net.net.xml"/>
    </output>

    <processing>
        <geometry.min-radius.fix.railways value="false"/>
        <geometry.avoid-overlap value="false"/>
        <geometry.max-grade.fix value="false"/>
        <offset.disable-normalization value="true"/>
        <lefthand value="0"/>
    </processing>

    <junctions>
        <no-internal-links value="true"/>
        <no-turnarounds value="true"/>
        <junctions.corner-detail value="5"/>
        <junctions.limit-turn-speed value="5.50"/>
        <rectangular-lane-cut value="0"/>
    </junctions>

    <pedestrian>
        <walkingareas value="0"/>
    </pedestrian>

</neteditConfiguration>
-->

<net version="1.20" junctionCornerDetail="5" limitTurnSpeed="5.50" avoidOverlap="0" xmlns:xsi="http://www.w3.org/2001/XMLSchema-instance" xsi:noNamespaceSchemaLocation="http://sumo.dlr.de/xsd/net_file.xsd">

    <location netOffset="0.00,0.00" convBoundary="-112.50,-120.00,262.50,75.00" origBoundary="-10000000000.00,-10000000000.00,10000000000.00,10000000000.00" projParameter="!"/>

    <edge id="-einstein" from="4" to="J1" priority="-1">
        <lane id="-einstein_0" index="0" allow="bus" speed="13.89" length="50.00" shape="101.60,4.00 101.60,46.80"/>
    </edge>
    <edge id="-euler" from="J1" to="6" priority="-1">
        <lane id="-euler_0" index="0" allow="bus" speed="13.89" length="50.00" shape="96.80,51.60 53.20,51.60"/>
    </edge>
    <edge id="-joules_one" from="J3" to="0" priority="-1">
        <lane id="-joules_one_0" index="0" speed="13.89" length="75.00" shape="-4.80,59.04 -4.80,10.40"/>
        <lane id="-joules_one_1" index="1" speed="13.89" length="75.00" shape="-1.60,59.04 -1.60,10.40"/>
    </edge>
    <edge id="-joules_three" from="5" to="J4" priority="-1">
        <lane id="-joules_three_0" index="0" speed="13.89" length="75.00" shape="154.80,10.40 154.80,55.20"/>
        <lane id="-joules_three_1" index="1" speed="13.89" length="75.00" shape="151.60,10.40 151.60,55.20"/>
    </edge>
    <edge id="-joules_two" from="J4" to="J3" priority="-1">
        <lane id="-joules_two_0" index="0" speed="13.89" length="150.00" shape="139.60,79.80 10.40,79.80"/>
        <lane id="-joules_two_1" index="1" speed="13.89" length="150.00" shape="139.60,76.60 10.40,76.60"/>
    </edge>
    <edge id="-kirchoff" from="6" to="1" priority="-1">
        <lane id="-kirchoff_0" index="0" allow="bus" speed="13.89" length="50.00" shape="48.40,46.80 48.40,4.00"/>
    </edge>
    <edge id="-ohm" from="J2" to="3" priority="-1">
        <lane id="-ohm_0" index="0" speed="13.89" length="64.03" shape="153.00,-116.25 115.88,-86.55"/>
        <lane id="-ohm_1" index="1" allow="bus" speed="13.89" length="64.03" shape="151.00,-118.75 113.88,-89.05"/>
    </edge>
    <edge id="-peleA" from="J9" to="J4" priority="-1">
        <lane id="-peleA_0" index="0" allow="bus" speed="13.89" length="135.21" shape="252.01,16.61 169.49,71.62"/>
        <lane id="-peleA_1" index="1" speed="13.89" length="135.21" shape="250.24,13.95 167.72,68.96"/>
        <lane id="-peleA_2" index="2" speed="13.89" length="135.21" shape="248.46,11.28 165.94,66.30"/>
    </edge>
    <edge id="-peleB" from="J7" to="J9" priority="-1">
        <lane id="-peleB_0" index="0" allow="bus" speed="13.89" length="138.04" shape="165.31,-82.85 254.37,-19.52"/>
        <lane id="-peleB_1" index="1" speed="13.89" length="138.04" shape="163.46,-80.25 252.52,-16.92"/>
        <lane id="-peleB_2" index="2" speed="13.89" length="138.04" shape="161.60,-77.64 250.66,-14.31"/>
        <lane id="-peleB_3" index="3" speed="13.89" length="138.04" shape="159.75,-75.03 248.81,-11.70"/>
    </edge>
    <edge id="-pi" from="0" to="J5" priority="-1">
        <lane id="-pi_0" index="0" speed="13.89" length="50.00" shape="-10.40,4.80 -50.00,4.80"/>
        <lane id="-pi_1" index="1" allow="bus" speed="13.89" length="50.00" shape="-10.40,1.60 -50.00,1.60"/>
    </edge>
    <edge id="-sennaA" from="J8" to="J3" priority="-1">
        <lane id="-sennaA_0" index="0" allow="bus" speed="13.89" length="135.21" shape="-102.10,1.16 -10.62,62.15"/>
        <lane id="-sennaA_1" index="1" speed="13.89" length="135.21" shape="-103.88,3.82 -12.39,64.82"/>
    </edge>
    <edge id="-sennaB" from="J0" to="J8" priority="-1">
        <lane id="-sennaB_0" index="0" allow="bus" speed="13.89" length="138.04" shape="-11.48,-65.95 -102.14,-1.47"/>
        <lane id="-sennaB_1" index="1" speed="13.89" length="138.04" shape="-13.33,-68.55 -104.00,-4.08"/>
    </edge>
    <edge id="-square" from="J6" to="5" priority="-1">
        <lane id="-square_0" index="0" speed="13.89" length="50.00" shape="200.00,4.80 160.40,4.80"/>
        <lane id="-square_1" index="1" allow="bus" speed="13.89" length="50.00" shape="200.00,1.60 160.40,1.60"/>
    </edge>
    <edge id="-watt" from="2" to="Watt" priority="-1">
        <lane id="-watt_0" index="0" speed="13.89" length="64.03" shape="34.12,-86.55 -3.00,-116.25"/>
        <lane id="-watt_1" index="1" allow="bus" speed="13.89" length="64.03" shape="36.12,-89.05 -1.00,-118.75"/>
    </edge>
    <edge id="arquimedes" from="2" to="3" priority="-1">
        <lane id="arquimedes_0" index="0" speed="13.89" length="50.00" shape="54.00,-91.20 96.00,-91.20"/>
        <lane id="arquimedes_1" index="1" speed="13.89" length="50.00" shape="54.00,-88.00 96.00,-88.00"/>
        <lane id="arquimedes_2" index="2" speed="13.89" length="50.00" shape="54.00,-84.80 96.00,-84.80"/>
        <lane id="arquimedes_3" index="3" allow="bus" speed="13.89" length="50.00" shape="54.00,-81.60 96.00,-81.60"/>
    </edge>
    <edge id="aveneue" from="2" to="J0" priority="-1">
        <lane id="aveneue_0" index="0" allow="bus" speed="13.89" length="50.00" shape="35.76,-75.20 10.40,-75.20"/>
        <lane id="aveneue_1" index="1" speed="13.89" length="50.00" shape="35.76,-78.40 10.40,-78.40"/>
    </edge>
    <edge id="aveneueb" from="J7" to="3" priority="-1">
        <lane id="aveneueb_0" index="0" allow="bus" speed="13.89" length="50.00" shape="139.60,-75.20 116.80,-75.20"/>
        <lane id="aveneueb_1" index="1" speed="13.89" length="50.00" shape="139.60,-78.40 116.80,-78.40"/>
    </edge>
    <edge id="brigadeiro" from="J0" to="0" priority="-1">
        <lane id="brigadeiro_0" index="0" allow="bus" speed="13.89" length="80.00" shape="4.80,-68.15 4.80,-13.60"/>
        <lane id="brigadeiro_1" index="1" speed="13.89" length="80.00" shape="1.60,-68.15 1.60,-13.60"/>
    </edge>
    <edge id="brigadeiroB" from="5" to="J7" priority="-1">
        <lane id="brigadeiroB_0" index="0" allow="bus" speed="13.89" length="80.00" shape="145.20,-16.80 145.20,-64.22"/>
        <lane id="brigadeiroB_1" index="1" speed="13.89" length="80.00" shape="148.40,-16.80 148.40,-64.22"/>
    </edge>
    <edge id="einstein" from="J1" to="4" priority="-1">
        <lane id="einstein_0" index="0" allow="bus" speed="13.89" length="50.00" shape="98.40,46.80 98.40,4.00"/>
    </edge>
    <edge id="eron" from="3" to="4" priority="-1">
        <lane id="eron_0" index="0" speed="13.89" length="80.00" shape="111.20,-69.60 111.20,-16.80"/>
        <lane id="eron_1" index="1" speed="13.89" length="80.00" shape="108.00,-69.60 108.00,-16.80"/>
        <lane id="eron_2" index="2" speed="13.89" length="80.00" shape="104.80,-69.60 104.80,-16.80"/>
        <lane id="eron_3" index="3" allow="bus" speed="13.89" length="80.00" shape="101.60,-69.60 101.60,-16.80"/>
    </edge>
    <edge id="euler" from="6" to="J1" priority="-1">
        <lane id="euler_0" index="0" allow="bus" speed="13.89" length="50.00" shape="53.20,48.40 96.80,48.40"/>
    </edge>
    <edge id="faraday" from="1" to="4" priority="-1">
        <lane id="faraday_0" index="0" speed="13.89" length="50.00" shape="57.20,-4.80 92.80,-4.80"/>
        <lane id="faraday_1" index="1" speed="13.89" length="50.00" shape="57.20,-1.60 92.80,-1.60"/>
    </edge>
    <edge id="joules_one" from="0" to="J3" priority="-1">
        <lane id="joules_one_0" index="0" speed="13.89" length="75.00" shape="4.80,10.40 4.80,59.04"/>
        <lane id="joules_one_1" index="1" speed="13.89" length="75.00" shape="1.60,10.40 1.60,59.04"/>
    </edge>
    <edge id="joules_three" from="J4" to="5" priority="-1">
        <lane id="joules_three_0" index="0" speed="13.89" length="75.00" shape="145.20,55.20 145.20,10.40"/>
        <lane id="joules_three_1" index="1" speed="13.89" length="75.00" shape="148.40,55.20 148.40,10.40"/>
    </edge>
    <edge id="joules_two" from="J3" to="J4" priority="-1">
        <lane id="joules_two_0" index="0" speed="13.89" length="150.00" shape="10.40,70.20 139.60,70.20"/>
        <lane id="joules_two_1" index="1" speed="13.89" length="150.00" shape="10.40,73.40 139.60,73.40"/>
    </edge>
    <edge id="kirchoff" from="1" to="6" priority="-1">
        <lane id="kirchoff_0" index="0" allow="bus" speed="13.89" length="50.00" shape="51.60,4.00 51.60,46.80"/>
    </edge>
    <edge id="maxwell" from="0" to="1" priority="-1">
        <lane id="maxwell_0" index="0" speed="13.89" length="50.00" shape="10.40,-8.00 36.40,-8.00"/>
        <lane id="maxwell_1" index="1" speed="13.89" length="50.00" shape="10.40,-4.80 36.40,-4.80"/>
        <lane id="maxwell_2" index="2" allow="bus" speed="13.89" length="50.00" shape="10.40,-1.60 36.40,-1.60"/>
    </edge>
    <edge id="newton" from="4" to="5" priority="-1">
        <lane id="newton_0" index="0" speed="13.89" length="50.00" shape="116.80,-11.20 139.60,-11.20"/>
        <lane id="newton_1" index="1" speed="13.89" length="50.00" shape="116.80,-8.00 139.60,-8.00"/>
        <lane id="newton_2" index="2" speed="13.89" length="50.00" shape="116.80,-4.80 139.60,-4.80"/>
        <lane id="newton_3" index="3" allow="bus" speed="13.89" length="50.00" shape="116.80,-1.60 139.60,-1.60"/>
    </edge>
    <edge id="ohm" from="3" to="J2" priority="-1">
        <lane id="ohm_0" index="0" speed="13.89" length="64.03" shape="109.88,-94.05 147.00,-123.75"/>
        <lane id="ohm_1" index="1" allow="bus" speed="13.89" length="64.03" shape="111.88,-91.55 149.00,-121.25"/>
    </edge>
    <edge id="peleA" from="J4" to="J9" priority="-1">
        <lane id="peleA_0" index="0" allow="bus" speed="13.89" length="135.21" shape="160.62,58.31 243.14,3.30"/>
        <lane id="peleA_1" index="1" speed="13.89" length="135.21" shape="162.39,60.97 244.91,5.96"/>
        <lane id="peleA_2" index="2" speed="13.89" length="135.21" shape="164.17,63.63 246.69,8.62"/>
    </edge>
    <edge id="peleB" from="J9" to="J7" priority="-1">
        <lane id="peleB_0" index="0" allow="bus" speed="13.89" length="138.04" shape="243.24,-3.88 154.19,-67.21"/>
        <lane id="peleB_1" index="1" speed="13.89" length="138.04" shape="245.10,-6.48 156.04,-69.81"/>
        <lane id="peleB_2" index="2" speed="13.89" length="138.04" shape="246.95,-9.09 157.90,-72.42"/>
    </edge>
    <edge id="pi" from="J5" to="0" priority="-1">
        <lane id="pi_0" index="0" speed="13.89" length="50.00" shape="-50.00,-4.80 -10.40,-4.80"/>
        <lane id="pi_1" index="1" allow="bus" speed="13.89" length="50.00" shape="-50.00,-1.60 -10.40,-1.60"/>
    </edge>
    <edge id="pitagoras" from="1" to="2" priority="-1">
        <lane id="pitagoras_0" index="0" speed="13.89" length="80.00" shape="42.00,-13.60 42.00,-69.60"/>
        <lane id="pitagoras_1" index="1" speed="13.89" length="80.00" shape="45.20,-13.60 45.20,-69.60"/>
        <lane id="pitagoras_2" index="2" allow="bus" speed="13.89" length="80.00" shape="48.40,-13.60 48.40,-69.60"/>
    </edge>
    <edge id="sennaA" from="J3" to="J8" priority="-1">
        <lane id="sennaA_0" index="0" allow="bus" speed="13.89" length="135.21" shape="-17.72,72.80 -109.20,11.81"/>
        <lane id="sennaA_1" index="1" speed="13.89" length="135.21" shape="-15.94,70.14 -107.43,9.15"/>
        <lane id="sennaA_2" index="2" speed="13.89" length="135.21" shape="-14.17,67.48 -105.65,6.49"/>
    </edge>
    <edge id="sennaB" from="J8" to="J0" priority="-1">
        <lane id="sennaB_0" index="0" allow="bus" speed="13.89" length="138.04" shape="-109.56,-11.91 -18.90,-76.38"/>
        <lane id="sennaB_1" index="1" speed="13.89" length="138.04" shape="-107.71,-9.30 -17.04,-73.77"/>
        <lane id="sennaB_2" index="2" speed="13.89" length="138.04" shape="-105.85,-6.69 -15.19,-71.16"/>
    </edge>
    <edge id="square" from="5" to="J6" priority="-1">
        <lane id="square_0" index="0" speed="13.89" length="50.00" shape="160.40,-4.80 200.00,-4.80"/>
        <lane id="square_1" index="1" allow="bus" speed="13.89" length="50.00" shape="160.40,-1.60 200.00,-1.60"/>
    </edge>
    <edge id="watt" from="Watt" to="2" priority="-1">
        <lane id="watt_0" index="0" speed="13.89" length="64.03" shape="3.00,-123.75 40.12,-94.05"/>
        <lane id="watt_1" index="1" allow="bus" speed="13.89" length="64.03" shape="1.00,-121.25 38.12,-91.55"/>
    </edge>

    <junction id="0" type="priority" x="0.00" y="0.00" incLanes="-joules_one_0 -joules_one_1 brigadeiro_0 brigadeiro_1 pi_0 pi_1" intLanes="" shape="-6.40,10.40 6.40,10.40 6.51,7.22 6.84,4.62 7.40,2.60 8.18,1.16 9.18,0.29 10.40,0.00 10.40,-9.60 8.18,-10.04 7.40,-10.60 6.84,-11.38 6.51,-12.38 6.40,-13.60 0.00,-13.60 -0.29,-11.40 -1.16,-9.60 -2.60,-8.20 -4.62,-7.20 -7.22,-6.60 -10.40,-6.40 -10.40,6.40 -8.18,6.84 -7.40,7.40 -6.84,8.18 -6.51,9.18">
        <request index="0"  response="000000000000000000000" foes="101000010010000000000"/>
        <request index="1"  response="000000000000000000000" foes="101000010010000000000"/>
        <request index="2"  response="000000001101110000000" foes="010111101101110000000"/>
        <request index="3"  response="000000001001110010000" foes="010111001001110010000"/>
        <request index="4"  response="000000001101110000000" foes="010111101101110001000"/>
        <request index="5"  response="000110001001000000000" foes="000110001001000000000"/>
        <request index="6"  response="000110001001000000000" foes="000110001001000000000"/>
        <request index="7"  response="000000000000000000000" foes="010001100000000011100"/>
        <request index="8"  response="000000000000000000000" foes="010001100100000011100"/>
        <request index="9"  response="000000000000000000000" foes="010111100100001111100"/>
        <request index="10" response="000000011000000000010" foes="111111111100000000010"/>
        <request index="11" response="000000000011100000000" foes="010001100011100011100"/>
        <request index="12" response="000000000000000000000" foes="010111100010001111100"/>
        <request index="13" response="000000000000000000011" foes="111111100010000000011"/>
        <request index="14" response="000000011111110011100" foes="000000011111110011100"/>
        <request index="15" response="010000011011110011100" foes="010000011011110011100"/>
        <request index="16" response="010000011011000011100" foes="010000011011001111100"/>
        <request index="17" response="010000011011000011100" foes="010000011011001111100"/>
        <request index="18" response="000000010010000000011" foes="000000010010000000011"/>
        <request index="19" response="000000011111110011100" foes="000111011111110011100"/>
        <request index="20" response="000000000010000000010" foes="000000000010000000010"/>
    </junction>
    <junction id="1" type="priority" x="50.00" y="0.00" incLanes="-kirchoff_0 maxwell_0 maxwell_1 maxwell_2" intLanes="" shape="46.80,4.00 53.20,4.00 53.64,1.78 54.20,1.00 54.98,0.44 55.98,0.11 57.20,0.00 57.20,-6.40 55.00,-6.60 53.20,-7.20 51.80,-8.20 50.80,-9.60 50.20,-11.40 50.00,-13.60 40.40,-13.60 39.96,-11.38 39.40,-10.60 38.62,-10.04 37.62,-9.71 36.40,-9.60 36.40,0.00 39.58,0.11 42.18,0.44 44.20,1.00 45.64,1.78 46.51,2.78">
        <request index="0"  response="11111110000" foes="11111110000"/>
        <request index="1"  response="11111110000" foes="11111110000"/>
        <request index="2"  response="11111100000" foes="11111100000"/>
        <request index="3"  response="11011000000" foes="11011000000"/>
        <request index="4"  response="00000000000" foes="00000000111"/>
        <request index="5"  response="00000000000" foes="00100000111"/>
        <request index="6"  response="01000000000" foes="01100001111"/>
        <request index="7"  response="01000000000" foes="01100001111"/>
        <request index="8"  response="00011100000" foes="00011100111"/>
        <request index="9"  response="00000000000" foes="00011001111"/>
        <request index="10" response="00000000000" foes="00000001111"/>
    </junction>
    <junction id="2" type="priority" x="50.00" y="-80.00" incLanes="pitagoras_0 pitagoras_1 pitagoras_2 watt_0 watt_1" intLanes="" shape="40.40,-69.60 50.00,-69.60 50.11,-72.78 50.44,-75.38 51.00,-77.40 51.78,-78.84 52.78,-79.71 54.00,-80.00 54.00,-92.80 51.12,-92.70 48.88,-92.54 47.02,-92.51 45.28,-92.83 43.40,-93.69 41.12,-95.30 33.13,-85.30 35.04,-83.68 36.36,-82.36 37.10,-81.33 37.24,-80.59 36.79,-80.15 35.76,-80.00 35.76,-73.60 38.34,-73.16 39.24,-72.60 39.88,-71.82 40.27,-70.82">
        <request index="0"  response="0000000000000000" foes="0100010000100000"/>
        <request index="1"  response="0000000000000000" foes="1100110000100000"/>
        <request index="2"  response="0000000000000000" foes="0011001101100000"/>
        <request index="3"  response="0000000000000000" foes="0011001101100000"/>
        <request index="4"  response="0000000000000000" foes="0011001101100000"/>
        <request index="5"  response="0000000000011111" foes="0100000000011111"/>
        <request index="6"  response="0000000000011100" foes="1100110000011100"/>
        <request index="7"  response="0000000000000000" foes="0011001000000000"/>
        <request index="8"  response="0000000010011100" foes="0000000010011100"/>
        <request index="9"  response="0011000010011100" foes="0011000010011100"/>
        <request index="10" response="0111000001100011" foes="0111000001100011"/>
        <request index="11" response="0000000001000010" foes="0000000001000010"/>
        <request index="12" response="0000000010011100" foes="0000011010011100"/>
        <request index="13" response="0000000010011100" foes="0000011010011100"/>
        <request index="14" response="0000000001100011" foes="0000010001100011"/>
        <request index="15" response="0000000001000000" foes="0000000001000000"/>
    </junction>
    <junction id="3" type="priority" x="100.00" y="-80.00" incLanes="aveneueb_0 aveneueb_1 -ohm_0 -ohm_1 arquimedes_0 arquimedes_1 arquimedes_2 arquimedes_3" intLanes="" shape="100.00,-69.60 112.80,-69.60 113.24,-71.82 113.80,-72.60 114.58,-73.16 115.58,-73.49 116.80,-73.60 116.80,-80.00 113.89,-80.59 113.54,-81.33 113.92,-82.36 115.03,-83.68 116.87,-85.30 108.88,-95.30 106.60,-93.69 104.72,-92.83 102.98,-92.51 101.12,-92.54 98.88,-92.70 96.00,-92.80 96.00,-80.00 98.22,-78.84 99.00,-77.40 99.56,-75.38 99.89,-72.78">
        <request index="0"  response="000000000000000000" foes="110110011110000000"/>
        <request index="1"  response="000000000000000000" foes="110110011110110000"/>
        <request index="2"  response="001001000001000000" foes="001001111111110000"/>
        <request index="3"  response="001000000001000000" foes="001000111111110000"/>
        <request index="4"  response="000000000000001110" foes="110110011110001110"/>
        <request index="5"  response="000000000000001110" foes="110110011110001110"/>
        <request index="6"  response="001001000000000000" foes="001001111110001100"/>
        <request index="7"  response="110110000001111111" foes="110110000001111111"/>
        <request index="8"  response="110110000001111111" foes="110110000001111111"/>
        <request index="9"  response="110110000001001111" foes="110110010001001111"/>
        <request index="10" response="110110001001111111" foes="110110001001111111"/>
        <request index="11" response="001000000000001100" foes="001000000000001100"/>
        <request index="12" response="000000000000000000" foes="000000100001001100"/>
        <request index="13" response="001000000000110011" foes="001000011110110011"/>
        <request index="14" response="001000000000110011" foes="001000011110110011"/>
        <request index="15" response="000000000000000000" foes="000110100001001100"/>
        <request index="16" response="000000000000110011" foes="000000011110110011"/>
        <request index="17" response="000000000000000011" foes="000000011000000011"/>
    </junction>
    <junction id="4" type="priority" x="100.00" y="0.00" incLanes="einstein_0 eron_0 eron_1 eron_2 eron_3 faraday_0 faraday_1" intLanes="" shape="96.80,4.00 103.20,4.00 104.71,1.78 106.60,1.00 109.24,0.44 112.64,0.11 116.80,0.00 116.80,-12.80 114.58,-13.24 113.80,-13.80 113.24,-14.58 112.91,-15.58 112.80,-16.80 100.00,-16.80 99.80,-13.62 99.20,-11.02 98.20,-9.00 96.80,-7.56 95.00,-6.69 92.80,-6.40 92.80,0.00 95.02,0.44 95.80,1.00 96.36,1.78 96.69,2.78">
        <request index="0"  response="00000110000" foes="11000110000"/>
        <request index="1"  response="00000000000" foes="01111000001"/>
        <request index="2"  response="00000000000" foes="01111000001"/>
        <request index="3"  response="00000000000" foes="01111000001"/>
        <request index="4"  response="00000000000" foes="01111000001"/>
        <request index="5"  response="00000000000" foes="11111000001"/>
        <request index="6"  response="00000111111" foes="00000111111"/>
        <request index="7"  response="00000111111" foes="00000111111"/>
        <request index="8"  response="00000111111" foes="00000111111"/>
        <request index="9"  response="00000110001" foes="00000110001"/>
        <request index="10" response="00000100001" foes="00000100001"/>
    </junction>
    <junction id="5" type="priority" x="150.00" y="0.00" incLanes="joules_three_0 joules_three_1 -square_0 -square_1 newton_0 newton_1 newton_2 newton_3" intLanes="" shape="143.60,10.40 156.40,10.40 156.84,8.18 157.40,7.40 158.18,6.84 159.18,6.51 160.40,6.40 160.40,-6.40 157.22,-6.69 154.62,-7.56 152.60,-9.00 151.16,-11.02 150.29,-13.62 150.00,-16.80 143.60,-16.80 143.16,-14.58 142.60,-13.80 141.82,-13.24 140.82,-12.91 139.60,-12.80 139.60,0.00 141.82,1.16 142.60,2.60 143.16,4.62 143.49,7.22">
        <request index="0"  response="11111101000000" foes="11111101000000"/>
        <request index="1"  response="11111101010000" foes="11111101010000"/>
        <request index="2"  response="11011001010000" foes="11011001010000"/>
        <request index="3"  response="00000000000000" foes="10010000000000"/>
        <request index="4"  response="01101101000000" foes="01101101100111"/>
        <request index="5"  response="00000000010000" foes="10010000010000"/>
        <request index="6"  response="01101100000000" foes="01101100010111"/>
        <request index="7"  response="01000000000000" foes="01000000000000"/>
        <request index="8"  response="00000000000000" foes="00100001010011"/>
        <request index="9"  response="00000000000000" foes="00100011010111"/>
        <request index="10" response="01000000101000" foes="01100000101111"/>
        <request index="11" response="00011100000000" foes="00011101000001"/>
        <request index="12" response="00000000000000" foes="00010011010111"/>
        <request index="13" response="00000000101000" foes="00000000101111"/>
    </junction>
    <junction id="6" type="priority" x="50.00" y="50.00" incLanes="-euler_0 kirchoff_0" intLanes="" shape="53.20,53.20 53.20,46.80 46.80,46.80 47.51,50.36 48.40,51.60 49.64,52.49 51.24,53.02">
        <request index="0" response="00" foes="00"/>
        <request index="1" response="00" foes="00"/>
    </junction>
    <junction id="J0" type="priority" x="0.00" y="-80.00" incLanes="aveneue_0 aveneue_1 sennaB_0 sennaB_1 sennaB_2" intLanes="" shape="0.00,-68.15 6.40,-68.15 6.84,-71.18 7.40,-72.24 8.18,-72.99 9.18,-73.45 10.40,-73.60 10.40,-80.00 3.76,-80.44 -1.43,-81.35 -5.76,-82.13 -9.87,-82.19 -14.35,-80.90 -19.83,-77.68 -10.55,-64.64 -7.33,-66.82 -4.69,-68.37 -2.64,-69.27 -1.17,-69.54 -0.29,-69.16">
        <request index="0" response="00000000" foes="01000000"/>
        <request index="1" response="00000000" foes="11010000"/>
        <request index="2" response="00000000" foes="11010000"/>
        <request index="3" response="00100000" foes="11110000"/>
        <request index="4" response="00001110" foes="11001110"/>
        <request index="5" response="00000000" foes="11001000"/>
        <request index="6" response="00111111" foes="00111111"/>
        <request index="7" response="00111111" foes="00111111"/>
    </junction>
    <junction id="J1" type="priority" x="100.00" y="50.00" incLanes="-einstein_0 euler_0" intLanes="" shape="103.20,46.80 96.80,46.80 96.80,53.20 100.36,52.49 101.60,51.60 102.49,50.36 103.02,48.76">
        <request index="0" response="00" foes="00"/>
        <request index="1" response="00" foes="00"/>
    </junction>
    <junction id="J2" type="priority" x="150.00" y="-120.00" incLanes="ohm_0 ohm_1" intLanes="" shape="150.00,-120.00 146.00,-125.00 150.00,-120.00">
        <request index="0" response="00" foes="00"/>
        <request index="1" response="00" foes="00"/>
    </junction>
    <junction id="J3" type="priority" x="0.00" y="75.00" incLanes="-joules_two_0 -joules_two_1 joules_one_0 joules_one_1 -sennaA_0 -sennaA_1" intLanes="" shape="10.40,81.40 10.40,68.60 8.18,67.54 7.40,66.21 6.84,64.35 6.51,61.96 6.40,59.04 -6.40,59.04 -6.77,61.02 -7.23,61.49 -7.88,61.61 -8.71,61.39 -9.73,60.82 -18.60,74.14 -13.17,77.55 -8.88,79.70 -5.04,80.88 -1.00,81.36 3.92,81.44">
        <request index="0"  response="00000000000" foes="00000000000"/>
        <request index="1"  response="00000000000" foes="00001100000"/>
        <request index="2"  response="00000000000" foes="00001100000"/>
        <request index="3"  response="11110000000" foes="11111100000"/>
        <request index="4"  response="10100000000" foes="10100000000"/>
        <request index="5"  response="10100001111" foes="10100001111"/>
        <request index="6"  response="10100001111" foes="10100001111"/>
        <request index="7"  response="00000000000" foes="00000001000"/>
        <request index="8"  response="00000000000" foes="01001111000"/>
        <request index="9"  response="00100000000" foes="00100001000"/>
        <request index="10" response="00000000000" foes="00001111000"/>
    </junction>
    <junction id="J4" type="priority" x="150.00" y="75.00" incLanes="-peleA_0 -peleA_1 -peleA_2 -joules_three_0 -joules_three_1 joules_two_0 joules_two_1" intLanes="" shape="170.38,72.95 159.73,56.98 157.88,57.76 157.23,57.64 156.77,57.17 156.49,56.36 156.40,55.20 143.60,55.20 143.49,59.29 143.16,62.64 142.60,65.25 141.82,67.11 140.82,68.23 139.60,68.60 139.60,81.40 146.50,81.39 151.72,81.18 155.99,80.50 160.04,79.08 164.60,76.65">
        <request index="0"  response="000000000100" foes="000010000100"/>
        <request index="1"  response="111100001100" foes="111110001100"/>
        <request index="2"  response="000000000000" foes="000010000011"/>
        <request index="3"  response="000000000000" foes="000010000010"/>
        <request index="4"  response="111100000000" foes="111110000000"/>
        <request index="5"  response="001000000000" foes="001000000000"/>
        <request index="6"  response="111000000000" foes="111000000000"/>
        <request index="7"  response="111000011111" foes="111000011111"/>
        <request index="8"  response="000000000000" foes="000000010010"/>
        <request index="9"  response="000000000000" foes="000011110010"/>
        <request index="10" response="000000000000" foes="000011110010"/>
        <request index="11" response="000000000000" foes="000011110010"/>
    </junction>
    <junction id="J5" type="priority" x="-50.00" y="0.00" incLanes="-pi_0 -pi_1" intLanes="" shape="-50.00,0.00 -50.00,6.40 -50.00,0.00">
        <request index="0" response="00" foes="00"/>
        <request index="1" response="00" foes="00"/>
    </junction>
    <junction id="J6" type="priority" x="200.00" y="0.00" incLanes="square_0 square_1" intLanes="" shape="200.00,0.00 200.00,-6.40 200.00,0.00">
        <request index="0" response="00" foes="00"/>
        <request index="1" response="00" foes="00"/>
    </junction>
    <junction id="J7" type="priority" x="150.00" y="-80.00" incLanes="brigadeiroB_0 brigadeiroB_1 peleB_0 peleB_1 peleB_2" intLanes="" shape="143.60,-64.22 150.00,-64.22 150.36,-66.18 150.81,-66.64 151.45,-66.75 152.26,-66.50 153.26,-65.90 166.24,-84.16 161.39,-86.56 157.45,-86.55 153.86,-85.01 150.06,-82.81 145.49,-80.85 139.60,-80.00 139.60,-73.60 141.82,-72.56 142.60,-71.26 143.16,-69.43 143.49,-67.09">
        <request index="0" response="01000000" foes="01000000"/>
        <request index="1" response="11000000" foes="11001000"/>
        <request index="2" response="11000000" foes="11001000"/>
        <request index="3" response="11000110" foes="11000110"/>
        <request index="4" response="11000000" foes="11000000"/>
        <request index="5" response="11000000" foes="11000000"/>
        <request index="6" response="00000000" foes="00111111"/>
        <request index="7" response="00000000" foes="00111111"/>
    </junction>
    <junction id="J8" type="priority" x="-112.50" y="0.00" incLanes="sennaA_0 sennaA_1 sennaA_2 -sennaB_0 -sennaB_1" intLanes="" shape="-110.09,13.14 -101.22,-0.17 -110.49,-13.21 -115.74,-8.74 -118.86,-4.30 -119.86,0.11 -118.73,4.49 -115.47,8.83">
        <request index="0" response="00000" foes="00000"/>