<?xml version="1.0" encoding="UTF-8"?>

<!-- generated on 2026-01-31T14:51:06.678884-03:00 by Eclipse SUMO netedit 1.25.0
<neteditConfiguration xmlns:xsi="http://www.w3.org/2001/XMLSchema-instance" xsi:noNamespaceSchemaLocation="http://sumo.dlr.de/xsd/neteditConfiguration.xsd">

    <input>
        <sumo-net-file value="C:\Users\felip\OneDrive\Documentos\IC\IC-2\Configuration\little-traffic-using-Sm\config\netb.net.xml"/>
    </input>

    <output>
        <output-file value="C:\Users\felip\OneDrive\Documentos\IC\IC-2\Configuration\little-traffic-using-Sm\config\netb.net.xml"/>
    </output>

    <processing>
        <geometry.min-radius.fix.railways value="false"/>
        <geometry.avoid-overlap value="false"/>
        <geometry.max-grade.fix value="false"/>
        <offset.disable-normalization value="true"/>
        <lefthand value="0"/>
    </processing>

    <junctions>
        <no-turnarounds value="true"/>
        <junctions.corner-detail value="5"/>
        <junctions.limit-turn-speed value="5.50"/>
        <rectangular-lane-cut value="0"/>
    </junctions>

    <pedestrian>
        <walkingareas value="0"/>
    </pedestrian>

</neteditConfiguration>
-->

<net version="1.20" junctionCornerDetail="5" limitTurnSpeed="5.50" avoidOverlap="0" xmlns:xsi="http://www.w3.org/2001/XMLSchema-instance" xsi:noNamespaceSchemaLocation="http://sumo.dlr.de/xsd/net_file.xsd">

    <location netOffset="0.00,0.00" convBoundary="-500.00,-215.00,1000.00,200.00" origBoundary="-10000000000.00,-10000000000.00,10000000000.00,10000000000.00" projParameter="!"/>

    <edge id=":J0_0" function="internal">
        <lane id=":J0_0_0" index="0" speed="6.51" length="9.03" shape="-54.80,-42.80 -55.15,-45.25 -56.20,-47.00 -57.95,-48.05 -60.40,-48.40"/>
    </edge>
    <edge id=":J0_1" function="internal">
        <lane id=":J0_1_0" index="0" speed="13.89" length="14.40" shape="-54.80,-42.80 -54.80,-57.20"/>
        <lane id=":J0_1_1" index="1" speed="13.89" length="14.40" shape="-51.60,-42.80 -51.60,-57.20"/>
    </edge>
    <edge id=":J0_3" function="internal">
        <lane id=":J0_3_0" index="0" speed="8.67" length="3.71" shape="-51.60,-42.80 -50.89,-46.44"/>
    </edge>
    <edge id=":J0_14" function="internal">
        <lane id=":J0_14_0" index="0" speed="8.67" length="13.14" shape="-50.89,-46.44 -50.85,-46.65 -48.60,-49.40 -44.85,-51.05 -39.60,-51.60"/>
    </edge>
    <edge id=":J0_4" function="internal">
        <lane id=":J0_4_0" index="0" speed="6.51" length="9.03" shape="-39.60,-48.40 -42.05,-48.05 -43.80,-47.00 -44.85,-45.25 -45.20,-42.80"/>
    </edge>
    <edge id=":J0_5" function="internal">
        <lane id=":J0_5_0" index="0" speed="13.89" length="20.80" shape="-39.60,-48.40 -60.40,-48.40"/>
    </edge>
    <edge id=":J0_6" function="internal">
        <lane id=":J0_6_0" index="0" speed="8.67" length="16.85" shape="-39.60,-48.40 -44.85,-48.95 -48.60,-50.60 -50.85,-53.35 -51.60,-57.20"/>
    </edge>
    <edge id=":J0_7" function="internal">
        <lane id=":J0_7_0" index="0" speed="6.51" length="9.03" shape="-45.20,-57.20 -44.85,-54.75 -43.80,-53.00 -42.05,-51.95 -39.60,-51.60"/>
    </edge>
    <edge id=":J0_8" function="internal">
        <lane id=":J0_8_0" index="0" speed="13.89" length="14.40" shape="-45.20,-57.20 -45.20,-42.80"/>
        <lane id=":J0_8_1" index="1" speed="13.89" length="14.40" shape="-48.40,-57.20 -48.40,-42.80"/>
    </edge>
    <edge id=":J0_10" function="internal">
        <lane id=":J0_10_0" index="0" speed="8.67" length="3.71" shape="-48.40,-57.20 -49.11,-53.56"/>
    </edge>
    <edge id=":J0_15" function="internal">
        <lane id=":J0_15_0" index="0" speed="8.67" length="13.14" shape="-49.11,-53.56 -49.15,-53.35 -51.40,-50.60 -55.15,-48.95 -60.40,-48.40"/>
    </edge>
    <edge id=":J0_11" function="internal">
        <lane id=":J0_11_0" index="0" speed="6.51" length="9.03" shape="-60.40,-51.60 -57.95,-51.95 -56.20,-53.00 -55.15,-54.75 -54.80,-57.20"/>
    </edge>
    <edge id=":J0_12" function="internal">
        <lane id=":J0_12_0" index="0" speed="13.89" length="20.80" shape="-60.40,-51.60 -39.60,-51.60"/>
    </edge>
    <edge id=":J0_13" function="internal">
        <lane id=":J0_13_0" index="0" speed="8.67" length="16.85" shape="-60.40,-51.60 -55.15,-51.05 -51.40,-49.40 -49.15,-46.65 -48.40,-42.80"/>
    </edge>
    <edge id=":J1_0" function="internal">
        <lane id=":J1_0_0" index="0" speed="6.51" length="9.03" shape="495.20,13.60 494.85,11.15 493.80,9.40 492.05,8.35 489.60,8.00"/>
    </edge>
    <edge id=":J1_1" function="internal">
        <lane id=":J1_1_0" index="0" speed="10.41" length="24.73" shape="498.40,13.60 499.15,5.55 501.40,-0.20 505.15,-3.65 510.40,-4.80"/>
        <lane id=":J1_1_1" index="1" speed="9.84" length="21.99" shape="498.40,13.60 499.15,6.95 501.40,2.20 505.15,-0.65 510.40,-1.60"/>
    </edge>
    <edge id=":J1_3" function="internal">
        <lane id=":J1_3_0" index="0" speed="6.51" length="9.03" shape="510.40,8.00 507.95,8.35 506.20,9.40 505.15,11.15 504.80,13.60"/>
    </edge>
    <edge id=":J1_4" function="internal">
        <lane id=":J1_4_0" index="0" speed="13.89" length="20.80" shape="510.40,8.00 489.60,8.00"/>
        <lane id=":J1_4_1" index="1" speed="13.89" length="20.80" shape="510.40,4.80 489.60,4.80"/>
        <lane id=":J1_4_2" index="2" allow="bus" speed="13.89" length="20.80" shape="510.40,1.60 489.60,1.60"/>
    </edge>
    <edge id=":J1_7" function="internal">
        <lane id=":J1_7_0" index="0" speed="13.89" length="20.80" shape="489.60,-8.00 510.40,-8.00"/>
        <lane id=":J1_7_1" index="1" speed="13.89" length="20.80" shape="489.60,-4.80 510.40,-4.80"/>
        <lane id=":J1_7_2" index="2" allow="bus" speed="13.89" length="20.80" shape="489.60,-1.60 510.40,-1.60"/>
    </edge>
    <edge id=":J1_10" function="internal">
        <lane id=":J1_10_0" index="0" allow="bus" speed="9.84" length="4.01" shape="489.60,-1.60 493.55,-0.89"/>
    </edge>
    <edge id=":J1_11" function="internal">
        <lane id=":J1_11_0" index="0" allow="bus" speed="9.84" length="17.98" shape="493.55,-0.89 494.85,-0.65 498.60,2.20 500.85,6.95 501.60,13.60"/>
    </edge>
    <edge id=":J10_0" function="internal">
        <lane id=":J10_0_0" index="0" speed="6.08" length="7.74" shape="601.60,-53.20 601.30,-51.10 600.40,-49.60 598.90,-48.70 596.80,-48.40"/>
    </edge>
    <edge id=":J10_1" function="internal">
        <lane id=":J10_1_0" index="0" speed="3.90" length="2.58" shape="596.80,-51.60 597.50,-51.70 598.00,-52.00 598.30,-52.50 598.40,-53.20"/>
    </edge>
    <edge id=":J100_0" function="internal">
        <lane id=":J100_0_0" index="0" speed="6.08" length="7.74" shape="-201.60,-124.30 -201.30,-126.40 -200.40,-127.90 -198.90,-128.80 -196.80,-129.10"/>
    </edge>
    <edge id=":J100_1" function="internal">
        <lane id=":J100_1_0" index="0" speed="3.90" length="2.58" shape="-196.80,-125.90 -197.50,-125.80 -198.00,-125.50 -198.30,-125.00 -198.40,-124.30"/>
    </edge>
    <edge id=":J101_0" function="internal">
        <lane id=":J101_0_0" index="0" speed="6.51" length="9.03" shape="-161.60,-120.30 -161.95,-122.75 -163.00,-124.50 -164.75,-125.55 -167.20,-125.90"/>
    </edge>
    <edge id=":J101_1" function="internal">
        <lane id=":J101_1_0" index="0" speed="8.00" length="14.19" shape="-161.60,-120.30 -161.05,-124.15 -159.40,-126.90 -156.65,-128.55 -152.80,-129.10"/>
    </edge>
    <edge id=":J101_2" function="internal">
        <lane id=":J101_2_0" index="0" speed="6.51" length="9.03" shape="-152.80,-125.90 -155.25,-125.55 -157.00,-124.50 -158.05,-122.75 -158.40,-120.30"/>
    </edge>
    <edge id=":J101_3" function="internal">
        <lane id=":J101_3_0" index="0" speed="13.89" length="14.40" shape="-152.80,-125.90 -167.20,-125.90"/>
    </edge>
    <edge id=":J101_4" function="internal">
        <lane id=":J101_4_0" index="0" speed="13.89" length="14.40" shape="-167.20,-129.10 -152.80,-129.10"/>
    </edge>
    <edge id=":J101_5" function="internal">
        <lane id=":J101_5_0" index="0" speed="8.00" length="4.07" shape="-167.20,-129.10 -163.35,-128.55 -163.20,-128.46"/>
    </edge>
    <edge id=":J101_6" function="internal">
        <lane id=":J101_6_0" index="0" speed="8.00" length="10.13" shape="-163.20,-128.46 -160.60,-126.90 -158.95,-124.15 -158.40,-120.30"/>
    </edge>
    <edge id=":J102_0" function="internal">
        <lane id=":J102_0_0" index="0" speed="6.08" length="7.74" shape="-118.40,-50.70 -118.70,-48.60 -119.60,-47.10 -121.10,-46.20 -123.20,-45.90"/>
    </edge>
    <edge id=":J102_1" function="internal">
        <lane id=":J102_1_0" index="0" speed="3.90" length="2.58" shape="-123.20,-49.10 -122.50,-49.20 -122.00,-49.50 -121.70,-50.00 -121.60,-50.70"/>
    </edge>
    <edge id=":J103_0" function="internal">
        <lane id=":J103_0_0" index="0" speed="6.51" length="9.03" shape="-121.60,-80.30 -121.95,-82.75 -123.00,-84.50 -124.75,-85.55 -127.20,-85.90"/>
    </edge>
    <edge id=":J103_1" function="internal">
        <lane id=":J103_1_0" index="0" speed="13.89" length="14.40" shape="-121.60,-80.30 -121.60,-94.70"/>
    </edge>
    <edge id=":J103_2" function="internal">
        <lane id=":J103_2_0" index="0" speed="13.89" length="14.40" shape="-118.40,-94.70 -118.40,-80.30"/>
    </edge>
    <edge id=":J103_3" function="internal">
        <lane id=":J103_3_0" index="0" speed="8.00" length="4.07" shape="-118.40,-94.70 -118.95,-90.85 -119.04,-90.70"/>
    </edge>
    <edge id=":J103_6" function="internal">
        <lane id=":J103_6_0" index="0" speed="8.00" length="10.13" shape="-119.04,-90.70 -120.60,-88.10 -123.35,-86.45 -127.20,-85.90"/>
    </edge>
    <edge id=":J103_4" function="internal">
        <lane id=":J103_4_0" index="0" speed="6.51" length="9.03" shape="-127.20,-89.10 -124.75,-89.45 -123.00,-90.50 -121.95,-92.25 -121.60,-94.70"/>
    </edge>
    <edge id=":J103_5" function="internal">
        <lane id=":J103_5_0" index="0" speed="8.00" length="14.19" shape="-127.20,-89.10 -123.35,-88.55 -120.60,-86.90 -118.95,-84.15 -118.40,-80.30"/>
    </edge>
    <edge id=":J104_0" function="internal">
        <lane id=":J104_0_0" index="0" speed="3.90" length="2.58" shape="-121.60,-124.30 -121.70,-125.00 -122.00,-125.50 -122.50,-125.80 -123.20,-125.90"/>
    </edge>
    <edge id=":J104_1" function="internal">
        <lane id=":J104_1_0" index="0" speed="6.08" length="7.74" shape="-123.20,-129.10 -121.10,-128.80 -119.60,-127.90 -118.70,-126.40 -118.40,-124.30"/>
    </edge>
    <edge id=":J105_0" function="internal">
        <lane id=":J105_0_0" index="0" speed="13.89" length="14.40" shape="618.40,-80.30 618.40,-94.70"/>
    </edge>
    <edge id=":J105_1" function="internal">
        <lane id=":J105_1_0" index="0" speed="8.00" length="4.07" shape="618.40,-80.30 618.95,-84.15 619.04,-84.30"/>
    </edge>
    <edge id=":J105_6" function="internal">
        <lane id=":J105_6_0" index="0" speed="8.00" length="10.13" shape="619.04,-84.30 620.60,-86.90 623.35,-88.55 627.20,-89.10"/>
    </edge>
    <edge id=":J105_2" function="internal">
        <lane id=":J105_2_0" index="0" speed="6.51" length="9.03" shape="627.20,-85.90 624.75,-85.55 623.00,-84.50 621.95,-82.75 621.60,-80.30"/>
    </edge>
    <edge id=":J105_3" function="internal">
        <lane id=":J105_3_0" index="0" speed="8.00" length="14.19" shape="627.20,-85.90 623.35,-86.45 620.60,-88.10 618.95,-90.85 618.40,-94.70"/>
    </edge>
    <edge id=":J105_4" function="internal">
        <lane id=":J105_4_0" index="0" speed="6.51" length="9.03" shape="621.60,-94.70 621.95,-92.25 623.00,-90.50 624.75,-89.45 627.20,-89.10"/>
    </edge>
    <edge id=":J105_5" function="internal">
        <lane id=":J105_5_0" index="0" speed="13.89" length="14.40" shape="621.60,-94.70 621.60,-80.30"/>
    </edge>
    <edge id=":J106_0" function="internal">
        <lane id=":J106_0_0" index="0" speed="6.08" length="7.74" shape="623.20,-45.90 621.10,-46.20 619.60,-47.10 618.70,-48.60 618.40,-50.70"/>
    </edge>
    <edge id=":J106_1" function="internal">
        <lane id=":J106_1_0" index="0" speed="3.90" length="2.58" shape="621.60,-50.70 621.70,-50.00 622.00,-49.50 622.50,-49.20 623.20,-49.10"/>
    </edge>
    <edge id=":J107_0" function="internal">
        <lane id=":J107_0_0" index="0" speed="13.89" length="14.40" shape="667.20,-45.90 652.80,-45.90"/>
    </edge>
    <edge id=":J107_1" function="internal">
        <lane id=":J107_1_0" index="0" speed="8.00" length="4.07" shape="667.20,-45.90 663.35,-46.45 663.20,-46.54"/>
    </edge>
    <edge id=":J107_6" function="internal">
        <lane id=":J107_6_0" index="0" speed="8.00" length="10.13" shape="663.20,-46.54 660.60,-48.10 658.95,-50.85 658.40,-54.70"/>
    </edge>
    <edge id=":J107_2" function="internal">
        <lane id=":J107_2_0" index="0" speed="6.51" length="9.03" shape="661.60,-54.70 661.95,-52.25 663.00,-50.50 664.75,-49.45 667.20,-49.10"/>
    </edge>
    <edge id=":J107_3" function="internal">
        <lane id=":J107_3_0" index="0" speed="8.00" length="14.19" shape="661.60,-54.70 661.05,-50.85 659.40,-48.10 656.65,-46.45 652.80,-45.90"/>
    </edge>
    <edge id=":J107_4" function="internal">
        <lane id=":J107_4_0" index="0" speed="6.51" length="9.03" shape="652.80,-49.10 655.25,-49.45 657.00,-50.50 658.05,-52.25 658.40,-54.70"/>
    </edge>
    <edge id=":J107_5" function="internal">
        <lane id=":J107_5_0" index="0" speed="13.89" length="14.40" shape="652.80,-49.10 667.20,-49.10"/>
    </edge>
    <edge id=":J108_0" function="internal">
        <lane id=":J108_0_0" index="0" speed="6.08" length="7.74" shape="701.60,-50.70 701.30,-48.60 700.40,-47.10 698.90,-46.20 696.80,-45.90"/>
    </edge>
    <edge id=":J108_1" function="internal">
        <lane id=":J108_1_0" index="0" speed="3.90" length="2.58" shape="696.80,-49.10 697.50,-49.20 698.00,-49.50 698.30,-50.00 698.40,-50.70"/>
    </edge>
    <edge id=":J109_0" function="internal">
        <lane id=":J109_0_0" index="0" speed="6.08" length="7.74" shape="618.40,-124.30 618.70,-126.40 619.60,-127.90 621.10,-128.80 623.20,-129.10"/>
    </edge>
    <edge id=":J109_1" function="internal">
        <lane id=":J109_1_0" index="0" speed="3.90" length="2.58" shape="623.20,-125.90 622.50,-125.80 622.00,-125.50 621.70,-125.00 621.60,-124.30"/>
    </edge>
    <edge id=":J11_0" function="internal">
        <lane id=":J11_0_0" index="0" speed="3.90" length="2.58" shape="548.40,53.20 548.30,52.50 548.00,52.00 547.50,51.70 546.80,51.60"/>
    </edge>
    <edge id=":J11_1" function="internal">
        <lane id=":J11_1_0" index="0" speed="6.08" length="7.74" shape="546.80,48.40 548.90,48.70 550.40,49.60 551.30,51.10 551.60,53.20"/>
    </edge>
    <edge id=":J110_0" function="internal">
        <lane id=":J110_0_0" index="0" speed="6.51" length="9.03" shape="658.40,-120.30 658.05,-122.75 657.00,-124.50 655.25,-125.55 652.80,-125.90"/>
    </edge>
    <edge id=":J110_1" function="internal">
        <lane id=":J110_1_0" index="0" speed="8.00" length="14.19" shape="658.40,-120.30 658.95,-124.15 660.60,-126.90 663.35,-128.55 667.20,-129.10"/>
    </edge>
    <edge id=":J110_2" function="internal">
        <lane id=":J110_2_0" index="0" speed="6.51" length="9.03" shape="667.20,-125.90 664.75,-125.55 663.00,-124.50 661.95,-122.75 661.60,-120.30"/>
    </edge>
    <edge id=":J110_3" function="internal">
        <lane id=":J110_3_0" index="0" speed="13.89" length="14.40" shape="667.20,-125.90 652.80,-125.90"/>
    </edge>
    <edge id=":J110_4" function="internal">
        <lane id=":J110_4_0" index="0" speed="13.89" length="14.40" shape="652.80,-129.10 667.20,-129.10"/>
    </edge>
    <edge id=":J110_5" function="internal">
        <lane id=":J110_5_0" index="0" speed="8.00" length="4.07" shape="652.80,-129.10 656.65,-128.55 656.80,-128.46"/>
    </edge>
    <edge id=":J110_6" function="internal">
        <lane id=":J110_6_0" index="0" speed="8.00" length="10.13" shape="656.80,-128.46 659.40,-126.90 661.05,-124.15 661.60,-120.30"/>
    </edge>
    <edge id=":J111_0" function="internal">
        <lane id=":J111_0_0" index="0" speed="3.90" length="2.58" shape="698.40,-124.30 698.30,-125.00 698.00,-125.50 697.50,-125.80 696.80,-125.90"/>
    </edge>
    <edge id=":J111_1" function="internal">
        <lane id=":J111_1_0" index="0" speed="6.08" length="7.74" shape="696.80,-129.10 698.90,-128.80 700.40,-127.90 701.30,-126.40 701.60,-124.30"/>
    </edge>
    <edge id=":J114_0" function="internal">
        <lane id=":J114_0_0" index="0" speed="11.47" length="19.56" shape="705.93,48.00 700.87,47.39 696.56,45.57 693.00,42.53 690.19,38.27"/>
        <lane id=":J114_0_1" index="1" speed="10.42" length="16.00" shape="705.93,44.80 701.79,44.30 698.26,42.81 695.35,40.32 693.05,36.84"/>
        <lane id=":J114_0_2" index="2" speed="9.24" length="12.45" shape="705.93,41.60 702.71,41.21 699.97,40.05 697.70,38.12 695.92,35.41"/>
    </edge>
    <edge id=":J114_3" function="internal">
        <lane id=":J114_3_0" index="0" speed="4.00" length="1.78" shape="704.50,31.12 704.76,31.50 705.08,31.78 705.47,31.94 705.93,32.00"/>
        <lane id=":J114_3_1" index="1" speed="6.25" length="5.33" shape="701.64,32.55 702.41,33.71 703.38,34.54 704.55,35.03 705.93,35.20"/>
        <lane id=":J114_3_2" index="2" speed="7.89" length="8.89" shape="698.78,33.98 700.05,35.91 701.67,37.29 703.63,38.12 705.93,38.40"/>
    </edge>
    <edge id=":J115_0" function="internal">
        <lane id=":J115_0_0" index="0" speed="4.00" length="1.78" shape="675.50,8.88 675.24,8.50 674.92,8.22 674.53,8.06 674.07,8.00"/>
        <lane id=":J115_0_1" index="1" speed="6.25" length="5.33" shape="678.36,7.45 677.59,6.29 676.62,5.46 675.45,4.97 674.07,4.80"/>
        <lane id=":J115_0_2" index="2" speed="7.89" length="8.89" shape="681.22,6.02 679.95,4.09 678.33,2.71 676.37,1.88 674.07,1.60"/>
    </edge>
    <edge id=":J115_3" function="internal">
        <lane id=":J115_3_0" index="0" speed="11.47" length="19.56" shape="674.07,-8.00 679.13,-7.39 683.44,-5.57 687.00,-2.53 689.81,1.73"/>
        <lane id=":J115_3_1" index="1" speed="10.42" length="16.00" shape="674.07,-4.80 678.21,-4.30 681.74,-2.81 684.65,-0.32 686.95,3.16"/>
        <lane id=":J115_3_2" index="2" speed="9.24" length="12.45" shape="674.07,-1.60 677.29,-1.21 680.03,-0.05 682.30,1.88 684.08,4.59"/>
    </edge>
    <edge id=":J116_0" function="internal">
        <lane id=":J116_0_0" index="0" speed="4.00" length="1.78" shape="-204.50,-206.12 -204.76,-206.50 -205.08,-206.78 -205.47,-206.94 -205.93,-207.00"/>
        <lane id=":J116_0_1" index="1" speed="6.25" length="5.33" shape="-201.64,-207.55 -202.41,-208.71 -203.38,-209.54 -204.55,-210.03 -205.93,-210.20"/>
        <lane id=":J116_0_2" index="2" speed="7.89" length="8.89" shape="-198.78,-208.98 -200.05,-210.91 -201.67,-212.29 -203.63,-213.12 -205.93,-213.40"/>
    </edge>
    <edge id=":J116_3" function="internal">
        <lane id=":J116_3_0" index="0" speed="11.47" length="19.56" shape="-205.93,-223.00 -200.87,-222.39 -196.56,-220.57 -193.00,-217.53 -190.19,-213.27"/>
        <lane id=":J116_3_1" index="1" speed="10.42" length="16.00" shape="-205.93,-219.80 -201.79,-219.30 -198.26,-217.81 -195.35,-215.32 -193.05,-211.84"/>
        <lane id=":J116_3_2" index="2" speed="9.24" length="12.45" shape="-205.93,-216.60 -202.71,-216.21 -199.97,-215.05 -197.70,-213.12 -195.92,-210.41"/>
    </edge>
    <edge id=":J117_0" function="internal">
        <lane id=":J117_0_0" index="0" speed="11.47" length="19.56" shape="-174.07,-167.00 -179.13,-167.61 -183.44,-169.43 -187.00,-172.47 -189.81,-176.73"/>
        <lane id=":J117_0_1" index="1" speed="10.42" length="16.00" shape="-174.07,-170.20 -178.21,-170.70 -181.74,-172.19 -184.65,-174.68 -186.95,-178.16"/>
        <lane id=":J117_0_2" index="2" speed="9.24" length="12.45" shape="-174.07,-173.40 -177.29,-173.79 -180.03,-174.95 -182.30,-176.88 -184.08,-179.59"/>
    </edge>
    <edge id=":J117_3" function="internal">
        <lane id=":J117_3_0" index="0" speed="4.00" length="1.78" shape="-175.50,-183.88 -175.24,-183.50 -174.92,-183.22 -174.53,-183.06 -174.07,-183.00"/>
        <lane id=":J117_3_1" index="1" speed="6.25" length="5.33" shape="-178.36,-182.45 -177.59,-181.29 -176.62,-180.46 -175.45,-179.97 -174.07,-179.80"/>
        <lane id=":J117_3_2" index="2" speed="7.89" length="8.89" shape="-181.22,-181.02 -179.95,-179.09 -178.33,-177.71 -176.37,-176.88 -174.07,-176.60"/>
    </edge>
    <edge id=":J118_0" function="internal">
        <lane id=":J118_0_0" index="0" speed="13.89" length="18.05" shape="-213.35,197.22 -217.07,199.13 -221.65,200.50 -226.42,201.32 -230.66,201.60"/>
    </edge>
    <edge id=":J118_1" function="internal">
        <lane id=":J118_1_0" index="0" speed="8.90" length="4.46" shape="-213.35,197.22 -216.87,198.79 -217.47,198.76"/>
    </edge>
    <edge id=":J118_6" function="internal">
        <lane id=":J118_6_0" index="0" speed="8.90" length="12.59" shape="-217.47,198.76 -220.47,198.56 -224.15,196.53 -227.91,192.68"/>
    </edge>
    <edge id=":J118_2" function="internal">
        <lane id=":J118_2_0" index="0" speed="7.59" length="12.13" shape="-225.41,190.68 -222.63,193.60 -220.00,195.23 -217.53,195.57 -215.21,194.61"/>
    </edge>
    <edge id=":J118_3" function="internal">
        <lane id=":J118_3_0" index="0" speed="7.38" length="18.06" shape="-225.41,190.68 -222.46,195.46 -222.35,198.87 -225.08,200.92 -230.66,201.60"/>
    </edge>
    <edge id=":J118_4" function="internal">
        <lane id=":J118_4_0" index="0" speed="5.54" length="9.46" shape="-230.66,198.40 -227.74,198.04 -226.31,196.97 -226.36,195.18 -227.91,192.68"/>
    </edge>
    <edge id=":J118_5" function="internal">
        <lane id=":J118_5_0" index="0" speed="13.89" length="16.12" shape="-230.66,198.40 -226.71,198.22 -222.58,197.60 -218.64,196.43 -215.21,194.61"/>
    </edge>
    <edge id=":J119_0" function="internal">
        <lane id=":J119_0_0" index="0" speed="13.89" length="18.05" shape="-289.34,201.60 -293.58,201.32 -298.35,200.50 -302.93,199.13 -306.65,197.22"/>
    </edge>
    <edge id=":J119_1" function="internal">
        <lane id=":J119_1_0" index="0" speed="7.38" length="6.23" shape="-289.34,201.60 -294.92,200.92 -295.41,200.55"/>
    </edge>
    <edge id=":J119_6" function="internal">
        <lane id=":J119_6_0" index="0" speed="7.38" length="11.83" shape="-295.41,200.55 -297.65,198.87 -297.54,195.46 -294.59,190.68"/>
    </edge>
    <edge id=":J119_2" function="internal">
        <lane id=":J119_2_0" index="0" speed="5.54" length="9.46" shape="-292.09,192.68 -293.64,195.18 -293.69,196.97 -292.26,198.04 -289.34,198.40"/>
    </edge>
    <edge id=":J119_3" function="internal">
        <lane id=":J119_3_0" index="0" speed="8.90" length="17.05" shape="-292.09,192.68 -295.85,196.53 -299.53,198.56 -303.13,198.79 -306.65,197.22"/>
    </edge>
    <edge id=":J119_4" function="internal">
        <lane id=":J119_4_0" index="0" speed="7.59" length="12.13" shape="-304.79,194.61 -302.47,195.57 -300.00,195.23 -297.37,193.60 -294.59,190.68"/>
    </edge>
    <edge id=":J119_5" function="internal">
        <lane id=":J119_5_0" index="0" speed="13.89" length="16.12" shape="-304.79,194.61 -301.36,196.43 -297.42,197.60 -293.29,198.22 -289.34,198.40"/>
    </edge>
    <edge id=":J12_0" function="internal">
        <lane id=":J12_0_0" index="0" speed="3.90" length="2.58" shape="48.40,53.20 48.30,52.50 48.00,52.00 47.50,51.70 46.80,51.60"/>
    </edge>
    <edge id=":J12_1" function="internal">
        <lane id=":J12_1_0" index="0" speed="6.08" length="7.74" shape="46.80,48.40 48.90,48.70 50.40,49.60 51.30,51.10 51.60,53.20"/>
    </edge>
    <edge id=":J120_0" function="internal">
        <lane id=":J120_0_0" index="0" speed="6.11" length="9.80" shape="-367.28,153.91 -369.34,151.95 -370.02,150.00 -369.34,148.05 -367.28,146.09"/>
    </edge>
    <edge id=":J120_1" function="internal">
        <lane id=":J120_1_0" index="0" speed="3.92" length="3.27" shape="-365.42,148.70 -366.11,149.35 -366.34,150.00 -366.11,150.65 -365.42,151.30"/>
    </edge>
    <edge id=":J122_0" function="internal">
        <lane id=":J122_0_0" index="0" speed="7.59" length="12.13" shape="-215.21,105.39 -217.53,104.43 -220.00,104.77 -222.63,106.40 -225.41,109.32"/>
    </edge>
    <edge id=":J122_1" function="internal">
        <lane id=":J122_1_0" index="0" speed="13.89" length="16.12" shape="-215.21,105.39 -218.64,103.57 -222.58,102.40 -226.71,101.78 -230.66,101.60"/>
    </edge>
    <edge id=":J122_2" function="internal">
        <lane id=":J122_2_0" index="0" speed="13.89" length="18.05" shape="-230.66,98.40 -226.42,98.68 -221.65,99.50 -217.07,100.87 -213.35,102.78"/>
    </edge>
    <edge id=":J122_3" function="internal">
        <lane id=":J122_3_0" index="0" speed="7.38" length="6.23" shape="-230.66,98.40 -225.08,99.08 -224.59,99.45"/>
    </edge>
    <edge id=":J122_6" function="internal">
        <lane id=":J122_6_0" index="0" speed="7.38" length="11.83" shape="-224.59,99.45 -222.35,101.13 -222.46,104.54 -225.41,109.32"/>
    </edge>
    <edge id=":J122_4" function="internal">
        <lane id=":J122_4_0" index="0" speed="5.54" length="9.46" shape="-227.91,107.32 -226.36,104.82 -226.31,103.03 -227.74,101.96 -230.66,101.60"/>
    </edge>
    <edge id=":J122_5" function="internal">
        <lane id=":J122_5_0" index="0" speed="8.90" length="17.05" shape="-227.91,107.32 -224.15,103.47 -220.47,101.44 -216.87,101.21 -213.35,102.78"/>
    </edge>
    <edge id=":J124_0" function="internal">
        <lane id=":J124_0_0" index="0" speed="7.59" length="12.13" shape="-294.59,109.32 -297.37,106.40 -300.00,104.77 -302.47,104.43 -304.79,105.39"/>
    </edge>
    <edge id=":J124_1" function="internal">
        <lane id=":J124_1_0" index="0" speed="7.38" length="18.06" shape="-294.59,109.32 -297.54,104.54 -297.65,101.13 -294.92,99.08 -289.34,98.40"/>
    </edge>
    <edge id=":J124_2" function="internal">
        <lane id=":J124_2_0" index="0" speed="5.54" length="9.46" shape="-289.34,101.60 -292.26,101.96 -293.69,103.03 -293.64,104.82 -292.09,107.32"/>
    </edge>
    <edge id=":J124_3" function="internal">
        <lane id=":J124_3_0" index="0" speed="13.89" length="16.12" shape="-289.34,101.60 -293.29,101.78 -297.42,102.40 -301.36,103.57 -304.79,105.39"/>
    </edge>
    <edge id=":J124_4" function="internal">
        <lane id=":J124_4_0" index="0" speed="13.89" length="18.05" shape="-306.65,102.78 -302.93,100.87 -298.35,99.50 -293.58,98.68 -289.34,98.40"/>
    </edge>
    <edge id=":J124_5" function="internal">
        <lane id=":J124_5_0" index="0" speed="8.90" length="4.46" shape="-306.65,102.78 -303.13,101.21 -302.53,101.24"/>
    </edge>
    <edge id=":J124_6" function="internal">
        <lane id=":J124_6_0" index="0" speed="8.90" length="12.59" shape="-302.53,101.24 -299.53,101.44 -295.85,103.47 -292.09,107.32"/>
    </edge>
    <edge id=":J125_0" function="internal">
        <lane id=":J125_0_0" index="0" speed="6.08" length="9.06" shape="-256.25,157.25 -258.13,155.49 -260.00,154.90 -261.87,155.49 -263.75,157.25"/>
    </edge>
    <edge id=":J125_1" function="internal">
        <lane id=":J125_1_0" index="0" speed="13.89" length="16.00" shape="-256.25,157.25 -266.25,144.75"/>
    </edge>
    <edge id=":J125_2" function="internal">
        <lane id=":J125_2_0" index="0" speed="9.19" length="15.84" shape="-256.25,157.25 -258.43,153.62 -259.15,150.00 -258.43,146.38 -256.25,142.75"/>
    </edge>
    <edge id=":J125_3" function="internal">
        <lane id=":J125_3_0" index="0" speed="7.90" length="11.47" shape="-253.75,144.75 -255.33,147.38 -255.85,150.00 -255.33,152.62 -253.75,155.25"/>
    </edge>
    <edge id=":J125_4" function="internal">
        <lane id=":J125_4_0" index="0" speed="13.89" length="16.00" shape="-253.75,144.75 -263.75,157.25"/>
    </edge>
    <edge id=":J125_5" function="internal">
        <lane id=":J125_5_0" index="0" speed="7.66" length="4.28" shape="-253.75,144.75 -256.88,147.68"/>
    </edge>
    <edge id=":J125_12" function="internal">
        <lane id=":J125_12_0" index="0" speed="7.66" length="10.83" shape="-256.88,147.68 -260.00,148.66 -263.12,147.68 -266.25,144.75"/>
    </edge>
    <edge id=":J125_6" function="internal">
        <lane id=":J125_6_0" index="0" speed="6.08" length="9.06" shape="-263.75,142.75 -261.87,144.51 -260.00,145.10 -258.13,144.51 -256.25,142.75"/>
    </edge>
    <edge id=":J125_7" function="internal">
        <lane id=":J125_7_0" index="0" speed="13.89" length="16.00" shape="-263.75,142.75 -253.75,155.25"/>
    </edge>
    <edge id=":J125_8" function="internal">
        <lane id=":J125_8_0" index="0" speed="9.19" length="15.84" shape="-263.75,142.75 -261.57,146.38 -260.85,150.00 -261.57,153.62 -263.75,157.25"/>
    </edge>
    <edge id=":J125_9" function="internal">
        <lane id=":J125_9_0" index="0" speed="7.90" length="11.47" shape="-266.25,155.25 -264.67,152.62 -264.15,150.00 -264.67,147.38 -266.25,144.75"/>
    </edge>
    <edge id=":J125_10" function="internal">
        <lane id=":J125_10_0" index="0" speed="13.89" length="16.00" shape="-266.25,155.25 -256.25,142.75"/>
    </edge>
    <edge id=":J125_11" function="internal">
        <lane id=":J125_11_0" index="0" speed="7.66" length="4.28" shape="-266.25,155.25 -263.12,152.32"/>
    </edge>
    <edge id=":J125_13" function="internal">
        <lane id=":J125_13_0" index="0" speed="7.66" length="10.83" shape="-263.12,152.32 -260.00,151.34 -256.88,152.32 -253.75,155.25"/>
    </edge>
    <edge id=":J126_0" function="internal">
        <lane id=":J126_0_0" index="0" speed="13.89" length="18.05" shape="730.66,201.60 726.42,201.32 721.65,200.50 717.07,199.13 713.35,197.22"/>
    </edge>
    <edge id=":J126_1" function="internal">
        <lane id=":J126_1_0" index="0" speed="7.38" length="6.23" shape="730.66,201.60 725.08,200.92 724.59,200.55"/>
    </edge>
    <edge id=":J126_6" function="internal">