<additional>
    <vType id="passenger" vClass="passenger" emissionClass="Energy/unknown">
        <param key="has.battery.device" value="true"/>
        <param key="device.battery.capacity" value="35000"/>
        <param key="device.battery.chargeLevel" value="25000"/>
        <param key="device.battery.maximumPowerRate" value="150000"/>
        </vType>

    <vType id="bus" vClass="bus" emissionClass="Energy/unknown">
        <param key="has.battery.device" value="true"/>
        <param key="device.battery.capacity" value="150000"/>
        <param key="device.battery.chargeLevel" value="100000"/>
    </vType>
</additional>